Version 4
SHEET 1 2044 944
WIRE -384 -784 -480 -784
WIRE -208 -784 -320 -784
WIRE -576 -640 -656 -640
WIRE -480 -640 -480 -784
WIRE -480 -640 -496 -640
WIRE -464 -640 -480 -640
WIRE -352 -640 -384 -640
WIRE -304 -640 -352 -640
WIRE -208 -640 -208 -784
WIRE -208 -640 -224 -640
WIRE -192 -640 -208 -640
WIRE -16 -640 -112 -640
WIRE -352 -576 -352 -640
WIRE -656 -432 -656 -640
WIRE -656 -432 -784 -432
WIRE -576 -432 -656 -432
WIRE -352 -432 -352 -512
WIRE -352 -432 -496 -432
WIRE -192 -432 -352 -432
WIRE -16 -432 -16 -640
WIRE -16 -432 -112 -432
WIRE -1584 -384 -1680 -384
WIRE -1408 -384 -1520 -384
WIRE -352 -272 -352 -432
WIRE -256 -272 -352 -272
WIRE -16 -256 -16 -432
WIRE -16 -256 -192 -256
WIRE -1776 -240 -1856 -240
WIRE -1680 -240 -1680 -384
WIRE -1680 -240 -1696 -240
WIRE -1664 -240 -1680 -240
WIRE -1552 -240 -1584 -240
WIRE -1504 -240 -1552 -240
WIRE -1408 -240 -1408 -384
WIRE -1408 -240 -1424 -240
WIRE -1392 -240 -1408 -240
WIRE -1216 -240 -1312 -240
WIRE -256 -240 -464 -240
WIRE -1552 -176 -1552 -240
WIRE -464 -176 -464 -240
WIRE -1856 -32 -1856 -240
WIRE -1856 -32 -1984 -32
WIRE -1776 -32 -1856 -32
WIRE -1552 -32 -1552 -112
WIRE -1552 -32 -1696 -32
WIRE -1392 -32 -1552 -32
WIRE -1216 -32 -1216 -240
WIRE -1216 -32 -1312 -32
WIRE -384 0 -480 0
WIRE -208 0 -320 0
WIRE -1552 128 -1552 -32
WIRE -1456 128 -1552 128
WIRE -1216 144 -1216 -32
WIRE -1216 144 -1392 144
WIRE -576 144 -656 144
WIRE -480 144 -480 0
WIRE -480 144 -496 144
WIRE -464 144 -480 144
WIRE -352 144 -384 144
WIRE -304 144 -352 144
WIRE -208 144 -208 0
WIRE -208 144 -224 144
WIRE -192 144 -208 144
WIRE -16 144 -112 144
WIRE -1456 160 -1664 160
WIRE -352 208 -352 144
WIRE -1664 224 -1664 160
WIRE -656 352 -656 144
WIRE -656 352 -784 352
WIRE -576 352 -656 352
WIRE -352 352 -352 272
WIRE -352 352 -496 352
WIRE -192 352 -352 352
WIRE -16 352 -16 144
WIRE -16 352 -112 352
WIRE -352 512 -352 352
WIRE -256 512 -352 512
WIRE 1760 512 1760 464
WIRE -16 528 -16 352
WIRE -16 528 -192 528
WIRE -256 544 -464 544
WIRE -464 608 -464 544
WIRE 1760 640 1760 592
WIRE 1904 640 1760 640
WIRE 1312 672 1312 544
WIRE 1904 672 1904 640
WIRE 1760 688 1760 640
WIRE 1312 800 1312 752
WIRE 1760 848 1760 768
FLAG 1904 672 0
FLAG 1760 464 +Vcc
FLAG 1760 848 -Vcc
FLAG -464 -176 0
FLAG -16 -432 Vout2
FLAG -784 -432 Vin
FLAG -224 -224 -Vcc
FLAG -224 -288 +Vcc
FLAG 1312 800 0
FLAG -464 608 0
FLAG -16 352 Vout3
FLAG -784 352 Vin
FLAG -224 560 -Vcc
FLAG -224 496 +Vcc
FLAG -1664 224 0
FLAG -1216 -32 Vout1
FLAG -1984 -32 Vin
FLAG -1424 176 -Vcc
FLAG -1424 112 +Vcc
FLAG 1312 544 Vin
SYMBOL voltage 1760 496 R0
SYMATTR InstName V1
SYMATTR Value 15
SYMBOL voltage 1760 672 R0
SYMATTR InstName V2
SYMATTR Value 15
SYMBOL res -480 -448 R90
WINDOW 0 0 56 VBottom 2
WINDOW 3 32 56 VTop 2
SYMATTR InstName R23a
SYMATTR Value 10k
SYMBOL res -96 -448 R90
WINDOW 0 0 56 VBottom 2
WINDOW 3 32 56 VTop 2
SYMATTR InstName R23b
SYMATTR Value 10k
SYMBOL res -480 -656 R90
WINDOW 0 0 56 VBottom 2
WINDOW 3 32 56 VTop 2
SYMATTR InstName R21a
SYMATTR Value 1
SYMBOL res -96 -656 R90
WINDOW 0 0 56 VBottom 2
WINDOW 3 32 56 VTop 2
SYMATTR InstName R21b
SYMATTR Value 1
SYMBOL res -208 -656 R90
WINDOW 0 0 56 VBottom 2
WINDOW 3 32 56 VTop 2
SYMATTR InstName R22b
SYMATTR Value 1
SYMBOL res -368 -656 R90
WINDOW 0 0 56 VBottom 2
WINDOW 3 32 56 VTop 2
SYMATTR InstName R22a
SYMATTR Value 1k
SYMBOL cap -368 -576 R0
SYMATTR InstName C22
SYMATTR Value 150n
SYMBOL cap -320 -800 R90
WINDOW 0 0 32 VBottom 2
WINDOW 3 32 32 VTop 2
SYMATTR InstName C21
SYMATTR Value 1.5µ
SYMBOL res -480 336 R90
WINDOW 0 0 56 VBottom 2
WINDOW 3 32 56 VTop 2
SYMATTR InstName R33a
SYMATTR Value 10k
SYMBOL res -96 336 R90
WINDOW 0 0 56 VBottom 2
WINDOW 3 32 56 VTop 2
SYMATTR InstName R33b
SYMATTR Value 10k
SYMBOL res -480 128 R90
WINDOW 0 0 56 VBottom 2
WINDOW 3 32 56 VTop 2
SYMATTR InstName R31a
SYMATTR Value 1
SYMBOL res -96 128 R90
WINDOW 0 0 56 VBottom 2
WINDOW 3 32 56 VTop 2
SYMATTR InstName R31b
SYMATTR Value 1
SYMBOL res -208 128 R90
WINDOW 0 0 56 VBottom 2
WINDOW 3 32 56 VTop 2
SYMATTR InstName R32b
SYMATTR Value 1k
SYMBOL res -368 128 R90
WINDOW 0 0 56 VBottom 2
WINDOW 3 32 56 VTop 2
SYMATTR InstName R32a
SYMATTR Value 1
SYMBOL cap -368 208 R0
SYMATTR InstName C32
SYMATTR Value 22n
SYMBOL cap -320 -16 R90
WINDOW 0 0 32 VBottom 2
WINDOW 3 32 32 VTop 2
SYMATTR InstName C31
SYMATTR Value 220n
SYMBOL voltage 1312 656 R0
WINDOW 123 24 124 Left 2
WINDOW 39 0 0 Left 0
SYMATTR Value2 AC 1
SYMATTR InstName V4
SYMATTR Value ""
SYMBOL res -1680 -48 R90
WINDOW 0 0 56 VBottom 2
WINDOW 3 32 56 VTop 2
SYMATTR InstName R13a
SYMATTR Value 100k
SYMBOL res -1296 -48 R90
WINDOW 0 0 56 VBottom 2
WINDOW 3 32 56 VTop 2
SYMATTR InstName R13b
SYMATTR Value 100k
SYMBOL res -1680 -256 R90
WINDOW 0 0 56 VBottom 2
WINDOW 3 32 56 VTop 2
SYMATTR InstName R11a
SYMATTR Value 1
SYMBOL res -1296 -256 R90
WINDOW 0 0 56 VBottom 2
WINDOW 3 32 56 VTop 2
SYMATTR InstName R11b
SYMATTR Value 1
SYMBOL res -1408 -256 R90
WINDOW 0 0 56 VBottom 2
WINDOW 3 32 56 VTop 2
SYMATTR InstName R12b
SYMATTR Value 1
SYMBOL res -1568 -256 R90
WINDOW 0 0 56 VBottom 2
WINDOW 3 32 56 VTop 2
SYMATTR InstName R12a
SYMATTR Value 10k
SYMBOL cap -1568 -176 R0
SYMATTR InstName C12
SYMATTR Value 390n
SYMBOL cap -1520 -400 R90
WINDOW 0 0 32 VBottom 2
WINDOW 3 32 32 VTop 2
SYMATTR InstName C11
SYMATTR Value 3.9µ
SYMBOL Opamps\\opamp2 -224 -320 R0
SYMATTR InstName U2
SYMATTR Value LM833
SYMBOL Opamps\\opamp2 -1424 80 R0
SYMATTR InstName U1
SYMATTR Value LM833
SYMBOL Opamps\\opamp2 -224 464 R0
SYMATTR InstName U3
SYMATTR Value LM833
TEXT 1560 272 Left 2 !.lib "Opamps_Comparators_ST.lib"
TEXT 1560 224 Left 2 !.ac dec 100 10 1Meg
