Version 4
SHEET 1 1076 680
WIRE 80 -352 -16 -352
WIRE 256 -352 144 -352
WIRE -112 -208 -192 -208
WIRE -16 -208 -16 -352
WIRE -16 -208 -32 -208
WIRE 0 -208 -16 -208
WIRE 112 -208 80 -208
WIRE 160 -208 112 -208
WIRE 256 -208 256 -352
WIRE 256 -208 240 -208
WIRE 272 -208 256 -208
WIRE 448 -208 352 -208
WIRE 112 -144 112 -208
WIRE 912 -64 912 -112
WIRE -192 0 -192 -208
WIRE -192 0 -320 0
WIRE -112 0 -192 0
WIRE 112 0 112 -80
WIRE 112 0 -32 0
WIRE 272 0 112 0
WIRE 448 0 448 -208
WIRE 448 0 352 0
WIRE 912 64 912 16
WIRE 1056 64 912 64
WIRE 1056 96 1056 64
WIRE 272 112 192 112
WIRE 912 112 912 64
WIRE -320 128 -320 0
WIRE 128 128 0 128
WIRE 272 144 192 144
WIRE 112 160 112 0
WIRE 128 160 112 160
WIRE 448 176 448 0
WIRE 448 176 192 176
WIRE -320 256 -320 208
WIRE 0 256 0 128
WIRE 912 272 912 192
FLAG -320 256 0
FLAG 0 256 0
FLAG 272 112 -Vcc
FLAG 272 144 +Vcc
FLAG 1056 96 0
FLAG 912 -112 +Vcc
FLAG 912 272 -Vcc
FLAG 448 0 Vout
FLAG -320 0 Vin
SYMBOL AutoGenerated\\LM833 160 144 R0
SYMATTR InstName U1
SYMBOL res -16 -16 R90
WINDOW 0 0 56 VBottom 2
WINDOW 3 32 56 VTop 2
SYMATTR InstName R3a
SYMATTR Value 10k
SYMBOL res 368 -16 R90
WINDOW 0 0 56 VBottom 2
WINDOW 3 32 56 VTop 2
SYMATTR InstName R3b
SYMATTR Value 10k
SYMBOL res -16 -224 R90
WINDOW 0 0 56 VBottom 2
WINDOW 3 32 56 VTop 2
SYMATTR InstName R1a
SYMATTR Value 10
SYMBOL res 368 -224 R90
WINDOW 0 0 56 VBottom 2
WINDOW 3 32 56 VTop 2
SYMATTR InstName R1b
SYMATTR Value 10
SYMBOL res 256 -224 R90
WINDOW 0 0 56 VBottom 2
WINDOW 3 32 56 VTop 2
SYMATTR InstName R2b
SYMATTR Value 1
SYMBOL res 96 -224 R90
WINDOW 0 0 56 VBottom 2
WINDOW 3 32 56 VTop 2
SYMATTR InstName R2a
SYMATTR Value 1k
SYMBOL cap 96 -144 R0
SYMATTR InstName C2
SYMATTR Value 10n
SYMBOL cap 144 -368 R90
WINDOW 0 0 32 VBottom 2
WINDOW 3 32 32 VTop 2
SYMATTR InstName C1
SYMATTR Value 100n
SYMBOL voltage -320 112 R0
WINDOW 123 24 124 Left 2
WINDOW 39 0 0 Left 0
SYMATTR Value2 AC 1
SYMATTR InstName V1
SYMATTR Value ""
SYMBOL voltage 912 -80 R0
SYMATTR InstName V2
SYMATTR Value 15
SYMBOL voltage 912 96 R0
SYMATTR InstName V3
SYMATTR Value 15
TEXT -352 280 Left 2 !.ac dec 100 10 1T
